Circuit: * C:\Users\EDU_OBOS_5057\Documents\Reflow oven\Design\HW\Simulation\Toggling protection\Draft1.asc

Direct Newton iteration for .op point succeeded.

Date: Wed Mar 17 13:45:16 2021
Total elapsed time: 0.079 seconds.

tnom = 27
temp = 27
method = trap
totiter = 7
traniter = 0
tranpoints = 0
accept = 0
rejected = 0
matrix size = 12
fillins = 1
solver = Normal
Matrix Compiler1:      37 opcodes
Matrix Compiler2: 934 bytes object code size
