Circuit: * C:\Users\EDU_OBOS_5057\Documents\Reflow oven\Design\HW\Simulation\Toggling protection\t_protection.asc

Direct Newton iteration for .op point succeeded.

Date: Mon Mar 01 15:19:12 2021
Total elapsed time: 0.124 seconds.

tnom = 27
temp = 27
method = modified trap
totiter = 2103
traniter = 2082
tranpoints = 1042
accept = 1042
rejected = 0
matrix size = 5
fillins = 0
solver = Normal
Matrix Compiler1: 186 bytes object code size  0.1/0.1/[0.1]
Matrix Compiler2: 309 bytes object code size  0.1/0.1/[0.1]

