Circuit: * C:\Users\EDU_OBOS_5057\Documents\Reflow oven\Design\HW\Simulation\Toggling protection\t_protection.asc

.OP point found by inspection.

Date: Mon Mar 01 22:10:31 2021
Total elapsed time: 1.972 seconds.

tnom = 27
temp = 27
method = modified trap
totiter = 358212
traniter = 358212
tranpoints = 164799
accept = 135207
rejected = 29592
matrix size = 7
fillins = 0
solver = Normal
Matrix Compiler1: 250 bytes object code size  0.1/0.1/[0.1]
Matrix Compiler2: 467 bytes object code size  0.1/0.1/[0.1]

